/*--------------------------------*- C++ -*----------------------------------*\
| =========                 |                                                 |
| \\      /  F ield         | OpenFOAM: The Open Source CFD Toolbox           |
|  \\    /   O peration     | Version:  2406                                  |
|   \\  /    A nd           | Website:  www.openfoam.com                      |
|    \\/     M anipulation  |                                                 |
\*---------------------------------------------------------------------------*/
FoamFile
{
    version     2.0;
    format      ascii;
    arch        "LSB;label=32;scalar=64";
    class       extendedFeatureEdgeMesh;
    location    "constant/extendedFeatureEdgeMesh";
    object      impeller.extendedFeatureEdgeMesh;
}
// * * * * * * * * * * * * * * * * * * * * * * * * * * * * * * * * * * * * * //

// points

116
(
(0.0040000002 0.0069282032 0)
(0.0080000004 0 0)
(-0.0040000002 0.0069282032 0)
(-0.0080000004 9.7971747e-19 0)
(-0.0040000002 -0.0069282032 0)
(0.0040000002 -0.0069282032 0)
(0.0080000004 0 0.47999999)
(0.0040000002 0.0069282032 0.47999999)
(-0.0040000002 0.0069282032 0.47999999)
(-0.0080000004 9.7971747e-19 0.47999999)
(-0.0040000002 -0.0069282032 0.47999999)
(0.0040000002 -0.0069282032 0.47999999)
(-0.022320509 -0.039999999 0.19866025)
(-0.012320508 -0.039999999 0.18133974)
(-0.022320509 -0.12 0.19866025)
(0.012320508 -0.12 0.21866025)
(0.012320508 -0.039999999 0.21866025)
(0.022320509 -0.039999999 0.20133975)
(-0.012320508 -0.12 0.18133974)
(0.022320509 -0.12 0.20133975)
(-0.039999999 0.022320509 0.19866025)
(-0.039999999 0.012320508 0.18133974)
(-0.12 0.022320509 0.19866025)
(-0.12 -0.012320508 0.21866025)
(-0.039999999 -0.012320508 0.21866025)
(-0.039999999 -0.022320509 0.20133975)
(-0.12 0.012320508 0.18133974)
(-0.12 -0.022320509 0.20133975)
(0.022320509 0.039999999 0.19866025)
(0.012320508 0.039999999 0.18133974)
(0.022320509 0.12 0.19866025)
(-0.012320508 0.12 0.21866025)
(-0.012320508 0.039999999 0.21866025)
(-0.022320509 0.039999999 0.20133975)
(0.012320508 0.12 0.18133974)
(-0.022320509 0.12 0.20133975)
(0.039999999 -0.022320509 0.19866025)
(0.039999999 -0.012320508 0.18133974)
(0.12 -0.022320509 0.19866025)
(0.12 0.012320508 0.21866025)
(0.039999999 0.012320508 0.21866025)
(0.039999999 0.022320509 0.20133975)
(0.12 -0.012320508 0.18133974)
(0.12 0.022320509 0.20133975)
(0.0080000004 0 0.1875)
(0.0040000002 0.0069282032 0.1875)
(-0.0040000002 0.0069282032 0.1875)
(-0.0080000004 -9.7971747e-19 0.1875)
(-0.0040000002 -0.0069282032 0.1875)
(0.0040000002 -0.0069282032 0.1875)
(0.039999999 0 0.211547)
(0.039999999 0 0.18845299)
(0 0.039999999 0.211547)
(1.7347235e-18 0.039999999 0.18845299)
(-0.039999999 0 0.211547)
(-0.039999999 1.7347235e-18 0.18845299)
(-3.469447e-18 -0.039999999 0.211547)
(-5.2041704e-18 -0.039999999 0.18845299)
(-0.0040000002 -0.0069282032 0.21250001)
(-0.0080000004 -9.7971747e-19 0.21250001)
(0.0040000002 -0.0069282032 0.21250001)
(-0.0040000002 0.0069282032 0.21250001)
(0.0080000004 0 0.21250001)
(0.0040000002 0.0069282032 0.21250001)
(-0.02994043 -0.026524907 0.1875)
(-0.035418242 -0.018588927 0.1875)
(-0.022722591 -0.032919355 0.1875)
(-0.014184196 -0.037400648 0.1875)
(-0.0048214672 -0.039708354 0.1875)
(-0.038837671 0.009572627 0.1875)
(-0.035418242 0.018588927 0.1875)
(-0.039999999 4.0425723e-17 0.1875)
(-0.038837671 -0.009572627 0.1875)
(0.0048214672 -0.039708354 0.1875)
(0.014184196 -0.037400648 0.1875)
(0.022722591 -0.032919355 0.1875)
(-0.02994043 0.026524907 0.1875)
(0.02994043 -0.026524907 0.1875)
(-0.022722591 0.032919355 0.1875)
(0.035418242 -0.018588927 0.1875)
(-0.014184196 0.037400648 0.1875)
(0.038837671 -0.009572627 0.1875)
(-0.0048214672 0.039708354 0.1875)
(0.039999999 0 0.1875)
(0.0048214672 0.039708354 0.1875)
(0.038837671 0.009572627 0.1875)
(0.014184196 0.037400648 0.1875)
(0.035418242 0.018588927 0.1875)
(0.022722591 0.032919355 0.1875)
(0.02994043 0.026524907 0.1875)
(0.038837671 0.009572627 0.21250001)
(0.039999999 0 0.21250001)
(0.035418242 0.018588927 0.21250001)
(0.02994043 0.026524907 0.21250001)
(0.022722591 0.032919355 0.21250001)
(0.014184196 0.037400648 0.21250001)
(-0.0048214672 0.039708354 0.21250001)
(0.0048214672 0.039708354 0.21250001)
(-0.014184196 0.037400648 0.21250001)
(-0.022722591 0.032919355 0.21250001)
(-0.02994043 0.026524907 0.21250001)
(-0.035418242 0.018588927 0.21250001)
(-0.038837671 0.009572627 0.21250001)
(-0.039999999 4.0425723e-17 0.21250001)
(-0.038837671 -0.009572627 0.21250001)
(-0.035418242 -0.018588927 0.21250001)
(-0.02994043 -0.026524907 0.21250001)
(-0.022722591 -0.032919355 0.21250001)
(-0.014184196 -0.037400648 0.21250001)
(0.0048214672 -0.039708354 0.21250001)
(-0.0048214672 -0.039708354 0.21250001)
(0.014184196 -0.037400648 0.21250001)
(0.022722591 -0.032919355 0.21250001)
(0.02994043 -0.026524907 0.21250001)
(0.035418242 -0.018588927 0.21250001)
(0.038837671 -0.009572627 0.21250001)
)

// edges

148
(
(44 1)
(1 0)
(0 45)
(2 46)
(0 2)
(3 47)
(2 3)
(4 48)
(3 4)
(5 49)
(4 5)
(5 1)
(64 65)
(66 64)
(67 66)
(68 67)
(69 70)
(71 69)
(72 71)
(65 72)
(73 68)
(74 73)
(75 74)
(70 76)
(77 75)
(76 78)
(79 77)
(78 80)
(81 79)
(80 82)
(83 81)
(82 84)
(85 83)
(84 86)
(87 85)
(86 88)
(89 87)
(88 89)
(90 91)
(92 90)
(93 92)
(94 93)
(95 94)
(96 97)
(97 95)
(98 96)
(99 98)
(100 99)
(101 100)
(102 101)
(103 102)
(104 103)
(105 104)
(106 105)
(107 106)
(108 107)
(109 110)
(110 108)
(111 109)
(112 111)
(113 112)
(114 113)
(115 114)
(91 115)
(6 62)
(63 7)
(7 6)
(61 8)
(8 7)
(59 9)
(9 8)
(58 10)
(10 9)
(60 11)
(11 10)
(6 11)
(57 13)
(13 12)
(12 56)
(12 14)
(16 56)
(15 16)
(14 15)
(17 57)
(16 17)
(18 13)
(17 19)
(19 18)
(18 14)
(15 19)
(55 21)
(21 20)
(20 54)
(20 22)
(24 54)
(23 24)
(22 23)
(25 55)
(24 25)
(26 21)
(25 27)
(27 26)
(26 22)
(23 27)
(53 29)
(29 28)
(28 52)
(28 30)
(32 52)
(31 32)
(30 31)
(33 53)
(32 33)
(34 29)
(33 35)
(35 34)
(34 30)
(31 35)
(51 37)
(37 36)
(36 50)
(36 38)
(40 50)
(39 40)
(38 39)
(41 51)
(40 41)
(42 37)
(41 43)
(43 42)
(42 38)
(39 43)
(45 44)
(46 45)
(47 46)
(48 47)
(49 48)
(44 49)
(58 59)
(60 58)
(59 61)
(62 60)
(61 63)
(63 62)
(50 51)
(53 52)
(55 54)
(57 56)
)

// concaveStart mixedStart nonFeatureStart
44 44 64
// internalStart flatStart openStart multipleStart
132 144 144 144
// normals

220
(
(0.99270887 0.12053673 0)
(-1 0 0)
(-1 0 0)
(0.99270887 -0.12053673 0)
(0.060378599 0.99817555 4.535382e-18)
(-0 -1 0)
(0 -1 -0)
(-0.060378599 0.99817555 -3.7966329e-18)
(-0.99270887 0.12053673 9.0542033e-18)
(1 0 0)
(1 0 0)
(-0.99270887 -0.12053673 -7.6071442e-18)
(-0.060378599 -0.99817555 4.535382e-18)
(-0 1 0)
(0 1 0)
(0.060378599 -0.99817555 -3.7966329e-18)
(0.86602539 0.50000002 0)
(0.86602539 -0.50000002 0)
(0 0 -1)
(0.86602539 0.50000002 -0)
(0 1 0)
(0 1 0)
(-0.86602539 0.50000002 0)
(-0 0 -1)
(-0.86602539 0.50000002 5.2251601e-18)
(-0.86602539 -0.50000002 -4.517509e-18)
(-0.86602539 -0.50000002 0)
(0 -1 0)
(0 0 -1)
(0 -1 0)
(0.86602539 -0.50000002 0)
(0 -0 -1)
(0 0 -1)
(-0.82298385 -0.56806478 0)
(0 0 -1)
(-0.66312266 -0.74851074 0)
(0 0 -1)
(-0.46472299 -0.88545612 0)
(0 0 -1)
(-0.23931569 -0.97094181 0)
(0 0 -1)
(-0.93501632 0.35460467 0)
(0 0 -1)
(-0.99270887 0.12053673 4.8937471e-15)
(-0 0 -1)
(-0.99270887 -0.12053673 -4.7929907e-15)
(0 0 -1)
(-0.93501632 -0.35460467 0)
(0 -0 -1)
(-0 -0.95622404 -0.2926356)
(0 0 -1)
(0.23931569 -0.97094181 0)
(0 0 -1)
(0.46472299 -0.88545612 0)
(0 0 -1)
(-0.82298385 0.56806478 0)
(-0 0 -1)
(0.66312266 -0.74851074 0)
(0 -0 -1)
(-0.66312266 0.74851074 0)
(-0 0 -1)
(0.82298385 -0.56806478 0)
(0 -0 -1)
(-0.46472299 0.88545612 0)
(-0 0 -1)
(0.93501632 -0.35460467 0)
(0 -0 -1)
(-0.23931569 0.97094181 0)
(-0 0 -1)
(0.99270887 -0.12053673 0)
(-0 0 -1)
(0 0.95622404 -0.2926356)
(0 -0 -1)
(0.99270887 0.12053673 0)
(-0 0 -1)
(0.23931569 0.97094181 0)
(0 -0 -1)
(0.93501632 0.35460467 0)
(-0 0 -1)
(0.46472299 0.88545612 0)
(0 -0 -1)
(0.82298385 0.56806478 0)
(-0 0 -1)
(0.66312266 0.74851074 0)
(0.99270887 0.12053673 0)
(0 0 1)
(0.93501632 0.35460467 -0)
(0 0 1)
(0.82298385 0.56806478 -0)
(0 0 1)
(0.66312266 0.74851074 -0)
(0 0 1)
(0.46472299 0.88545612 -0)
(0 0 1)
(-0 0.95622532 0.29263141)
(0 0 1)
(0.23931569 0.97094181 -0)
(0 0 1)
(-0.23931569 0.97094181 0)
(0 0 1)
(-0.46472299 0.88545612 0)
(0 0 1)
(-0.66312266 0.74851074 0)
(0 0 1)
(-0.82298385 0.56806478 0)
(0 0 1)
(-0.93501632 0.35460467 0)
(0 0 1)
(-0.99270887 0.12053673 -5.1130799e-15)
(0 0 1)
(-0.99270887 -0.12053673 4.9772587e-15)
(0 0 1)
(-0.93501632 -0.35460467 0)
(0 0 1)
(-0.82298385 -0.56806478 0)
(0 0 1)
(-0.66312266 -0.74851074 0)
(0 0 1)
(-0.46472299 -0.88545612 0)
(0 0 1)
(0 -0.95622532 0.29263141)
(0 0 1)
(-0.23931569 -0.97094181 0)
(0 0 1)
(0.23931569 -0.97094181 0)
(0 0 1)
(0.46472299 -0.88545612 0)
(0 0 1)
(0.66312266 -0.74851074 0)
(0 0 1)
(0.82298385 -0.56806478 0)
(0 0 1)
(0.93501632 -0.35460467 0)
(0 0 1)
(0.99270887 -0.12053673 0)
(0 0 1)
(0.86602539 0.50000002 0)
(0.86602539 -0.50000002 0)
(0.86602539 0.50000002 -0)
(0 1 0)
(0 0 1)
(0 1 0)
(-0.86602539 0.50000002 0)
(0 0 1)
(-0.86602539 0.50000002 -3.6624956e-18)
(-0.86602539 -0.50000002 3.1664785e-18)
(-0.86602539 -0.50000002 0)
(0 -1 0)
(0 0 1)
(0 -1 0)
(0.86602539 -0.50000002 0)
(0 0 1)
(0 1 0)
(0.49999997 0 -0.86602542)
(-0.86602546 0 -0.4999999)
(-0.49999988 0 0.86602547)
(-0.49999997 0 0.86602542)
(-0 1 0)
(0.86602527 -0 0.50000023)
(-0.49999991 1.1433099e-08 0.86602546)
(0 -1 0)
(0.50000031 0 -0.86602522)
(-0.86602546 0 -0.4999999)
(0.86602527 0 0.50000023)
(0.50000019 -4.5938733e-08 -0.86602529)
(0 -1 0)
(1 0 0)
(0 -0.49999997 -0.86602542)
(0 0.86602546 -0.4999999)
(-0 0.49999988 0.86602547)
(-0 0.49999997 0.86602542)
(1 0 0)
(0 -0.86602527 0.50000023)
(1.1433099e-08 0.49999991 0.86602546)
(-1 0 0)
(0 -0.50000031 -0.86602522)
(0 0.86602546 -0.4999999)
(0 -0.86602527 0.50000023)
(-4.5938733e-08 -0.50000019 -0.86602529)
(-1 -0 0)
(0 -1 0)
(-0.49999997 -0 -0.86602542)
(0.86602546 0 -0.4999999)
(0.49999988 0 0.86602547)
(0.49999997 0 0.86602542)
(-0 -1 0)
(-0.86602527 0 0.50000023)
(0.49999991 -1.1433099e-08 0.86602546)
(0 1 0)
(-0.50000031 -0 -0.86602522)
(0.86602546 0 -0.4999999)
(-0.86602527 0 0.50000023)
(-0.50000019 4.5938733e-08 -0.86602529)
(0 1 0)
(-1 0 0)
(0 0.49999997 -0.86602542)
(-0 -0.86602546 -0.4999999)
(0 -0.49999988 0.86602547)
(0 -0.49999997 0.86602542)
(-1 0 0)
(0 0.86602527 0.50000023)
(-1.1433099e-08 -0.49999991 0.86602546)
(1 0 0)
(0 0.50000031 -0.86602522)
(0 -0.86602546 -0.4999999)
(0 0.86602527 0.50000023)
(4.5938733e-08 0.50000019 -0.86602529)
(1 -0 0)
(0 0 -1)
(0 0 -1)
(-0 0 -1)
(0 -0 -1)
(-0 0 -1)
(0 0 -1)
(0 0 1)
(0 0 1)
(0 0 1)
(0 0 1)
(0 0 1)
(0 0 1)
)

// normal volume types

220
(
0
0
0
0
0
0
0
0
0
0
0
0
0
0
0
0
0
0
0
0
0
0
0
0
0
0
0
0
0
0
0
0
0
0
0
0
0
0
0
0
0
0
0
0
0
0
0
0
0
0
0
0
0
0
0
0
0
0
0
0
0
0
0
0
0
0
0
0
0
0
0
0
0
0
0
0
0
0
0
0
0
0
0
0
0
0
0
0
0
0
0
0
0
0
0
0
0
0
0
0
0
0
0
0
0
0
0
0
0
0
0
0
0
0
0
0
0
0
0
0
0
0
0
0
0
0
0
0
0
0
0
0
0
0
0
0
0
0
0
0
0
0
0
0
0
0
0
0
0
0
0
0
0
0
0
0
0
0
0
0
0
0
0
0
0
0
0
0
0
0
0
0
0
0
0
0
0
0
0
0
0
0
0
0
0
0
0
0
0
0
0
0
0
0
0
0
0
0
0
0
0
0
0
0
0
0
0
0
0
0
0
0
0
0
0
0
0
0
0
0
)

// normalDirections

148
(
2(1 -1)
2(1 -1)
2(1 -1)
2(1 -1)
2(1 -1)
2(1 -1)
2(1 -1)
2(1 -1)
2(1 -1)
2(1 -1)
2(1 -1)
2(1 -1)
2(1 -1)
2(1 -1)
2(1 -1)
2(1 -1)
2(1 -1)
2(1 -1)
2(1 -1)
2(1 -1)
2(1 -1)
2(1 -1)
2(1 -1)
2(1 -1)
2(1 -1)
2(1 -1)
2(1 -1)
2(1 -1)
2(1 -1)
2(1 -1)
2(1 -1)
2(1 -1)
2(1 -1)
2(1 -1)
2(1 -1)
2(1 -1)
2(1 -1)
2(1 -1)
2(1 -1)
2(1 -1)
2(1 -1)
2(1 -1)
2(1 -1)
2(1 -1)
2(1 -1)
2(1 -1)
2(1 -1)
2(1 -1)
2(1 -1)
2(1 -1)
2(1 -1)
2(1 -1)
2(1 -1)
2(1 -1)
2(1 -1)
2(1 -1)
2(1 -1)
2(1 -1)
2(1 -1)
2(1 -1)
2(1 -1)
2(1 -1)
2(1 -1)
2(1 -1)
2(1 -1)
2(1 -1)
2(1 -1)
2(1 -1)
2(1 -1)
2(1 -1)
2(1 -1)
2(1 -1)
2(1 -1)
2(1 -1)
2(1 -1)
2(1 -1)
2(1 -1)
2(1 -1)
2(1 -1)
2(1 -1)
2(1 -1)
2(1 -1)
2(1 -1)
2(1 -1)
2(1 -1)
2(1 -1)
2(1 -1)
2(1 -1)
2(1 -1)
2(1 -1)
2(1 -1)
2(1 -1)
2(1 -1)
2(1 -1)
2(1 -1)
2(1 -1)
2(1 -1)
2(1 -1)
2(1 -1)
2(1 -1)
2(1 -1)
2(1 -1)
2(1 -1)
2(1 -1)
2(1 -1)
2(1 -1)
2(1 -1)
2(1 -1)
2(1 -1)
2(1 -1)
2(1 -1)
2(1 -1)
2(1 -1)
2(1 -1)
2(1 -1)
2(1 -1)
2(1 -1)
2(1 -1)
2(1 -1)
2(1 -1)
2(1 -1)
2(1 -1)
2(1 -1)
2(1 -1)
2(1 -1)
2(1 -1)
2(1 -1)
2(1 -1)
2(1 -1)
2(1 -1)
2(1 -1)
2(1 -1)
2(1 -1)
2(1 -1)
2(1 -1)
2(1 -1)
2(1 -1)
2(1 -1)
2(1 -1)
2(1 -1)
2(1 -1)
2(1 -1)
2(1 -1)
2(1 -1)
4(1 -1 1 -1)
4(1 -1 1 -1)
4(1 -1 1 -1)
4(1 -1 1 -1)
)

// edgeNormals

148
(
2(16 17)
2(16 18)
2(19 20)
2(21 22)
2(20 23)
2(24 25)
2(22 23)
2(26 27)
2(25 28)
2(29 30)
2(27 31)
2(30 18)
2(32 33)
2(34 35)
2(36 37)
2(38 39)
2(40 41)
2(42 43)
2(44 45)
2(46 47)
2(48 49)
2(50 51)
2(52 53)
2(54 55)
2(56 57)
2(58 59)
2(60 61)
2(62 63)
2(64 65)
2(66 67)
2(68 69)
2(70 71)
2(72 73)
2(74 75)
2(76 77)
2(78 79)
2(80 81)
2(82 83)
2(84 85)
2(86 87)
2(88 89)
2(90 91)
2(92 93)
2(94 95)
2(96 97)
2(98 99)
2(100 101)
2(102 103)
2(104 105)
2(106 107)
2(108 109)
2(110 111)
2(112 113)
2(114 115)
2(116 117)
2(118 119)
2(120 121)
2(122 123)
2(124 125)
2(126 127)
2(128 129)
2(130 131)
2(132 133)
2(134 135)
2(136 137)
2(138 139)
2(138 140)
2(141 142)
2(141 143)
2(144 145)
2(144 143)
2(146 147)
2(146 148)
2(149 150)
2(149 151)
2(137 140)
2(152 153)
2(152 154)
2(13 155)
2(155 154)
2(156 157)
2(156 158)
2(159 160)
2(14 161)
2(157 158)
2(153 162)
2(161 163)
2(164 165)
2(162 165)
2(163 160)
2(166 167)
2(166 168)
2(9 169)
2(169 168)
2(170 171)
2(170 172)
2(173 174)
2(10 175)
2(171 172)
2(167 176)
2(175 177)
2(178 179)
2(176 179)
2(177 174)
2(180 181)
2(180 182)
2(5 183)
2(183 182)
2(184 185)
2(184 186)
2(187 188)
2(6 189)
2(185 186)
2(181 190)
2(189 191)
2(192 193)
2(190 193)
2(191 188)
2(194 195)
2(194 196)
2(2 197)
2(197 196)
2(198 199)
2(198 200)
2(201 202)
2(1 203)
2(199 200)
2(195 204)
2(203 205)
2(206 207)
2(204 207)
2(205 202)
2(19 208)
2(21 209)
2(24 210)
2(26 211)
2(29 212)
2(17 213)
2(214 145)
2(215 147)
2(216 142)
2(217 150)
2(218 139)
2(219 136)
4(0 1 2 3)
4(4 5 6 7)
4(8 9 10 11)
4(12 13 14 15)
)

// featurePointNormals

64
(
3(16 18 20)
3(16 17 18)
3(21 22 23)
3(24 25 23)
3(26 27 28)
3(29 30 31)
3(136 137 140)
3(138 139 140)
3(141 142 143)
3(144 145 143)
3(146 147 148)
3(149 150 151)
3(152 154 155)
3(152 153 154)
3(155 154 160)
3(156 158 160)
3(156 157 158)
3(14 161 158)
3(153 162 165)
3(161 163 165)
3(166 168 169)
3(166 167 168)
3(169 168 174)
3(170 172 174)
3(170 171 172)
3(10 175 172)
3(167 176 179)
3(175 177 179)
3(180 182 183)
3(180 181 182)
3(183 182 188)
3(184 186 188)
3(184 185 186)
3(6 189 186)
3(181 190 193)
3(189 191 193)
3(194 196 197)
3(194 195 196)
3(197 196 202)
3(198 200 202)
3(198 199 200)
3(1 203 200)
3(195 204 207)
3(203 205 207)
3(16 17 208)
3(19 20 208)
3(21 22 209)
3(24 25 210)
3(26 27 211)
3(29 30 212)
4(2 197 0 3)
4(194 195 0 3)
4(5 183 4 7)
4(180 181 4 7)
4(9 169 8 11)
4(166 167 8 11)
4(13 155 12 15)
4(152 153 12 15)
3(146 147 214)
3(144 145 214)
3(149 150 215)
3(141 142 216)
3(136 137 217)
3(138 139 218)
)

// featurePointEdges

64
(
3(2 4 1)
3(0 11 1)
3(4 6 3)
3(6 8 5)
3(8 10 7)
3(10 11 9)
3(66 75 64)
3(65 68 66)
3(67 70 68)
3(69 72 70)
3(71 74 72)
3(73 75 74)
3(78 79 77)
3(76 85 77)
3(82 88 79)
3(82 89 81)
3(80 84 81)
3(84 86 83)
3(87 88 85)
3(87 89 86)
3(92 93 91)
3(90 99 91)
3(96 102 93)
3(96 103 95)
3(94 98 95)
3(98 100 97)
3(101 102 99)
3(101 103 100)
3(106 107 105)
3(104 113 105)
3(110 116 107)
3(110 117 109)
3(108 112 109)
3(112 114 111)
3(115 116 113)
3(115 117 114)
3(120 121 119)
3(118 127 119)
3(124 130 121)
3(124 131 123)
3(122 126 123)
3(126 128 125)
3(129 130 127)
3(129 131 128)
3(132 137 0)
3(2 133 132)
3(3 134 133)
3(5 135 134)
3(7 136 135)
3(9 137 136)
3(144 120 122)
3(144 118 125)
3(145 106 108)
3(145 104 111)
3(146 92 94)
3(146 90 97)
3(147 78 80)
3(147 76 83)
3(139 71 138)
3(138 69 140)
3(141 73 139)
3(140 67 142)
3(143 64 141)
3(143 65 142)
)

// regionEdges
4(144 145 146 147)


// ************************************************************************* //
