/*--------------------------------*- C++ -*----------------------------------*\
| =========                 |                                                 |
| \\      /  F ield         | OpenFOAM: The Open Source CFD Toolbox           |
|  \\    /   O peration     | Version:  2406                                  |
|   \\  /    A nd           | Website:  www.openfoam.com                      |
|    \\/     M anipulation  |                                                 |
\*---------------------------------------------------------------------------*/
FoamFile
{
    version     2.0;
    format      ascii;
    arch        "LSB;label=32;scalar=64";
    class       featureEdgeMesh;
    location    "constant/triSurface";
    object      impeller.eMesh;
}
// * * * * * * * * * * * * * * * * * * * * * * * * * * * * * * * * * * * * * //


// points:

116
(
(0.0040000002 0.0069282032 0)
(0.0080000004 0 0)
(-0.0040000002 0.0069282032 0)
(-0.0080000004 9.7971747e-19 0)
(-0.0040000002 -0.0069282032 0)
(0.0040000002 -0.0069282032 0)
(0.0080000004 0 0.47999999)
(0.0040000002 0.0069282032 0.47999999)
(-0.0040000002 0.0069282032 0.47999999)
(-0.0080000004 9.7971747e-19 0.47999999)
(-0.0040000002 -0.0069282032 0.47999999)
(0.0040000002 -0.0069282032 0.47999999)
(-0.022320509 -0.039999999 0.19866025)
(-0.012320508 -0.039999999 0.18133974)
(-0.022320509 -0.12 0.19866025)
(0.012320508 -0.12 0.21866025)
(0.012320508 -0.039999999 0.21866025)
(0.022320509 -0.039999999 0.20133975)
(-0.012320508 -0.12 0.18133974)
(0.022320509 -0.12 0.20133975)
(-0.039999999 0.022320509 0.19866025)
(-0.039999999 0.012320508 0.18133974)
(-0.12 0.022320509 0.19866025)
(-0.12 -0.012320508 0.21866025)
(-0.039999999 -0.012320508 0.21866025)
(-0.039999999 -0.022320509 0.20133975)
(-0.12 0.012320508 0.18133974)
(-0.12 -0.022320509 0.20133975)
(0.022320509 0.039999999 0.19866025)
(0.012320508 0.039999999 0.18133974)
(0.022320509 0.12 0.19866025)
(-0.012320508 0.12 0.21866025)
(-0.012320508 0.039999999 0.21866025)
(-0.022320509 0.039999999 0.20133975)
(0.012320508 0.12 0.18133974)
(-0.022320509 0.12 0.20133975)
(0.039999999 -0.022320509 0.19866025)
(0.039999999 -0.012320508 0.18133974)
(0.12 -0.022320509 0.19866025)
(0.12 0.012320508 0.21866025)
(0.039999999 0.012320508 0.21866025)
(0.039999999 0.022320509 0.20133975)
(0.12 -0.012320508 0.18133974)
(0.12 0.022320509 0.20133975)
(0.0080000004 0 0.1875)
(0.0040000002 0.0069282032 0.1875)
(-0.0040000002 0.0069282032 0.1875)
(-0.0080000004 -9.7971747e-19 0.1875)
(-0.0040000002 -0.0069282032 0.1875)
(0.0040000002 -0.0069282032 0.1875)
(0.039999999 0 0.211547)
(0.039999999 0 0.18845299)
(0 0.039999999 0.211547)
(1.7347235e-18 0.039999999 0.18845299)
(-0.039999999 0 0.211547)
(-0.039999999 1.7347235e-18 0.18845299)
(-3.469447e-18 -0.039999999 0.211547)
(-5.2041704e-18 -0.039999999 0.18845299)
(-0.0040000002 -0.0069282032 0.21250001)
(-0.0080000004 -9.7971747e-19 0.21250001)
(0.0040000002 -0.0069282032 0.21250001)
(-0.0040000002 0.0069282032 0.21250001)
(0.0080000004 0 0.21250001)
(0.0040000002 0.0069282032 0.21250001)
(-0.02994043 -0.026524907 0.1875)
(-0.035418242 -0.018588927 0.1875)
(-0.022722591 -0.032919355 0.1875)
(-0.014184196 -0.037400648 0.1875)
(-0.0048214672 -0.039708354 0.1875)
(-0.038837671 0.009572627 0.1875)
(-0.035418242 0.018588927 0.1875)
(-0.039999999 4.0425723e-17 0.1875)
(-0.038837671 -0.009572627 0.1875)
(0.0048214672 -0.039708354 0.1875)
(0.014184196 -0.037400648 0.1875)
(0.022722591 -0.032919355 0.1875)
(-0.02994043 0.026524907 0.1875)
(0.02994043 -0.026524907 0.1875)
(-0.022722591 0.032919355 0.1875)
(0.035418242 -0.018588927 0.1875)
(-0.014184196 0.037400648 0.1875)
(0.038837671 -0.009572627 0.1875)
(-0.0048214672 0.039708354 0.1875)
(0.039999999 0 0.1875)
(0.0048214672 0.039708354 0.1875)
(0.038837671 0.009572627 0.1875)
(0.014184196 0.037400648 0.1875)
(0.035418242 0.018588927 0.1875)
(0.022722591 0.032919355 0.1875)
(0.02994043 0.026524907 0.1875)
(0.038837671 0.009572627 0.21250001)
(0.039999999 0 0.21250001)
(0.035418242 0.018588927 0.21250001)
(0.02994043 0.026524907 0.21250001)
(0.022722591 0.032919355 0.21250001)
(0.014184196 0.037400648 0.21250001)
(-0.0048214672 0.039708354 0.21250001)
(0.0048214672 0.039708354 0.21250001)
(-0.014184196 0.037400648 0.21250001)
(-0.022722591 0.032919355 0.21250001)
(-0.02994043 0.026524907 0.21250001)
(-0.035418242 0.018588927 0.21250001)
(-0.038837671 0.009572627 0.21250001)
(-0.039999999 4.0425723e-17 0.21250001)
(-0.038837671 -0.009572627 0.21250001)
(-0.035418242 -0.018588927 0.21250001)
(-0.02994043 -0.026524907 0.21250001)
(-0.022722591 -0.032919355 0.21250001)
(-0.014184196 -0.037400648 0.21250001)
(0.0048214672 -0.039708354 0.21250001)
(-0.0048214672 -0.039708354 0.21250001)
(0.014184196 -0.037400648 0.21250001)
(0.022722591 -0.032919355 0.21250001)
(0.02994043 -0.026524907 0.21250001)
(0.035418242 -0.018588927 0.21250001)
(0.038837671 -0.009572627 0.21250001)
)


// edges:

148
(
(44 1)
(1 0)
(0 45)
(2 46)
(0 2)
(3 47)
(2 3)
(4 48)
(3 4)
(5 49)
(4 5)
(5 1)
(64 65)
(66 64)
(67 66)
(68 67)
(69 70)
(71 69)
(72 71)
(65 72)
(73 68)
(74 73)
(75 74)
(70 76)
(77 75)
(76 78)
(79 77)
(78 80)
(81 79)
(80 82)
(83 81)
(82 84)
(85 83)
(84 86)
(87 85)
(86 88)
(89 87)
(88 89)
(90 91)
(92 90)
(93 92)
(94 93)
(95 94)
(96 97)
(97 95)
(98 96)
(99 98)
(100 99)
(101 100)
(102 101)
(103 102)
(104 103)
(105 104)
(106 105)
(107 106)
(108 107)
(109 110)
(110 108)
(111 109)
(112 111)
(113 112)
(114 113)
(115 114)
(91 115)
(6 62)
(63 7)
(7 6)
(61 8)
(8 7)
(59 9)
(9 8)
(58 10)
(10 9)
(60 11)
(11 10)
(6 11)
(57 13)
(13 12)
(12 56)
(12 14)
(16 56)
(15 16)
(14 15)
(17 57)
(16 17)
(18 13)
(17 19)
(19 18)
(18 14)
(15 19)
(55 21)
(21 20)
(20 54)
(20 22)
(24 54)
(23 24)
(22 23)
(25 55)
(24 25)
(26 21)
(25 27)
(27 26)
(26 22)
(23 27)
(53 29)
(29 28)
(28 52)
(28 30)
(32 52)
(31 32)
(30 31)
(33 53)
(32 33)
(34 29)
(33 35)
(35 34)
(34 30)
(31 35)
(51 37)
(37 36)
(36 50)
(36 38)
(40 50)
(39 40)
(38 39)
(41 51)
(40 41)
(42 37)
(41 43)
(43 42)
(42 38)
(39 43)
(45 44)
(46 45)
(47 46)
(48 47)
(49 48)
(44 49)
(58 59)
(60 58)
(59 61)
(62 60)
(61 63)
(63 62)
(50 51)
(53 52)
(55 54)
(57 56)
)

// * * * * * * * * * * * * * * * * * * * * * * * * * * * * * * * * * * * * * //


// ************************************************************************* //
