/*--------------------------------*- C++ -*----------------------------------*\
| =========                 |                                                 |
| \\      /  F ield         | OpenFOAM: The Open Source CFD Toolbox           |
|  \\    /   O peration     | Version:  2406                                  |
|   \\  /    A nd           | Website:  www.openfoam.com                      |
|    \\/     M anipulation  |                                                 |
\*---------------------------------------------------------------------------*/
FoamFile
{
    version     2.0;
    format      ascii;
    arch        "LSB;label=32;scalar=64";
    class       featureEdgeMesh;
    location    "constant/triSurface";
    object      vessel.eMesh;
}
// * * * * * * * * * * * * * * * * * * * * * * * * * * * * * * * * * * * * * //


// points:

252
(
(0.2 0 0)
(0.19975138 0.0099691767 0)
(0.19975138 0.0099691767 0.5)
(0.2 0 0.5)
(0.19900616 0.019913569 0.5)
(0.19900616 0.019913569 0)
(0.19776617 0.029808452 0.5)
(0.19776617 0.029808452 0)
(0.19603449 0.039629228 0.5)
(0.19603449 0.039629228 0)
(0.19381545 0.04935148 0.5)
(0.19381545 0.04935148 0)
(0.19111456 0.058951035 0.5)
(0.19111456 0.058951035 0)
(0.18793853 0.068404026 0.5)
(0.18793853 0.068404026 0)
(0.18429524 0.077686958 0.5)
(0.18429524 0.077686958 0)
(0.18019377 0.086776748 0.5)
(0.18019377 0.086776748 0)
(0.17564431 0.095650792 0.5)
(0.17065817 0.10428704 0.5)
(0.17564431 0.095650792 0)
(0.17065817 0.10428704 0)
(0.16524775 0.11266401 0)
(0.16524775 0.11266401 0.5)
(0.1594265 0.12076088 0)
(0.1594265 0.12076088 0.5)
(0.15320888 0.12855752 0)
(0.15320888 0.12855752 0.5)
(0.14661038 0.13603455 0.5)
(0.14661038 0.13603455 0)
(0.13964736 0.14317337 0.5)
(0.13964736 0.14317337 0)
(0.13233717 0.14995624 0.5)
(0.12469796 0.1563663 0.5)
(0.13233717 0.14995624 0)
(0.12469796 0.1563663 0)
(0.11674874 0.16238759 0)
(0.11674874 0.16238759 0.5)
(0.10850925 0.16800518 0.5)
(0.1 0.17320508 0.5)
(0.10850925 0.16800518 0)
(0.091242135 0.17797436 0.5)
(0.1 0.17320508 0)
(0.091242135 0.17797436 0)
(0.08225742 0.18230116 0.5)
(0.08225742 0.18230116 0)
(0.073068202 0.18617475 0.5)
(0.073068202 0.18617475 0)
(0.063697331 0.18958546 0.5)
(0.063697331 0.18958546 0)
(0.054168094 0.19252485 0.5)
(0.054168094 0.19252485 0)
(0.044504188 0.19498558 0.5)
(0.044504188 0.19498558 0)
(0.034729637 0.19696155 0.5)
(0.034729637 0.19696155 0)
(0.024868742 0.19844784 0.5)
(0.024868742 0.19844784 0)
(0.014946018 0.19944076 0.5)
(0.014946018 0.19944076 0)
(0.0049861385 0.19993784 0.5)
(0.0049861385 0.19993784 0)
(-0.0049861385 0.19993784 0.5)
(-0.014946018 0.19944076 0.5)
(-0.0049861385 0.19993784 0)
(-0.014946018 0.19944076 0)
(-0.024868742 0.19844784 0.5)
(-0.024868742 0.19844784 0)
(-0.034729637 0.19696155 0.5)
(-0.034729637 0.19696155 0)
(-0.044504188 0.19498558 0.5)
(-0.044504188 0.19498558 0)
(-0.054168094 0.19252485 0.5)
(-0.054168094 0.19252485 0)
(-0.063697331 0.18958546 0)
(-0.063697331 0.18958546 0.5)
(-0.073068202 0.18617475 0)
(-0.073068202 0.18617475 0.5)
(-0.08225742 0.18230116 0)
(-0.08225742 0.18230116 0.5)
(-0.091242135 0.17797436 0)
(-0.091242135 0.17797436 0.5)
(-0.1 0.17320508 0)
(-0.1 0.17320508 0.5)
(-0.10850925 0.16800518 0)
(-0.10850925 0.16800518 0.5)
(-0.11674874 0.16238759 0)
(-0.11674874 0.16238759 0.5)
(-0.12469796 0.1563663 0)
(-0.12469796 0.1563663 0.5)
(-0.13233717 0.14995624 0)
(-0.13233717 0.14995624 0.5)
(-0.13964736 0.14317337 0)
(-0.13964736 0.14317337 0.5)
(-0.14661038 0.13603455 0.5)
(-0.14661038 0.13603455 0)
(-0.15320888 0.12855752 0.5)
(-0.15320888 0.12855752 0)
(-0.1594265 0.12076088 0.5)
(-0.1594265 0.12076088 0)
(-0.16524775 0.11266401 0.5)
(-0.16524775 0.11266401 0)
(-0.17065817 0.10428704 0.5)
(-0.17564431 0.095650792 0.5)
(-0.17065817 0.10428704 0)
(-0.17564431 0.095650792 0)
(-0.18019377 0.086776748 0.5)
(-0.18019377 0.086776748 0)
(-0.18429524 0.077686958 0.5)
(-0.18429524 0.077686958 0)
(-0.18793853 0.068404026 0.5)
(-0.18793853 0.068404026 0)
(-0.19111456 0.058951035 0.5)
(-0.19111456 0.058951035 0)
(-0.19381545 0.04935148 0.5)
(-0.19381545 0.04935148 0)
(-0.19603449 0.039629228 0.5)
(-0.19603449 0.039629228 0)
(-0.19776617 0.029808452 0.5)
(-0.19776617 0.029808452 0)
(-0.19900616 0.019913569 0.5)
(-0.19900616 0.019913569 0)
(-0.19975138 0.0099691767 0)
(-0.19975138 0.0099691767 0.5)
(-0.2 -6.8604978e-16 0)
(-0.2 -6.8604978e-16 0.5)
(-0.19975138 -0.0099691767 0)
(-0.19975138 -0.0099691767 0.5)
(-0.19900616 -0.019913569 0)
(-0.19900616 -0.019913569 0.5)
(-0.19776617 -0.029808452 0)
(-0.19776617 -0.029808452 0.5)
(-0.19603449 -0.039629228 0)
(-0.19603449 -0.039629228 0.5)
(-0.19381545 -0.04935148 0)
(-0.19381545 -0.04935148 0.5)
(-0.19111456 -0.058951035 0)
(-0.19111456 -0.058951035 0.5)
(-0.18793853 -0.068404026 0)
(-0.18793853 -0.068404026 0.5)
(-0.18429524 -0.077686958 0)
(-0.18429524 -0.077686958 0.5)
(-0.18019377 -0.086776748 0)
(-0.18019377 -0.086776748 0.5)
(-0.17564431 -0.095650792 0)
(-0.17564431 -0.095650792 0.5)
(-0.17065817 -0.10428704 0)
(-0.17065817 -0.10428704 0.5)
(-0.16524775 -0.11266401 0)
(-0.16524775 -0.11266401 0.5)
(-0.1594265 -0.12076088 0)
(-0.1594265 -0.12076088 0.5)
(-0.15320888 -0.12855752 0)
(-0.15320888 -0.12855752 0.5)
(-0.14661038 -0.13603455 0)
(-0.14661038 -0.13603455 0.5)
(-0.13964736 -0.14317337 0)
(-0.13964736 -0.14317337 0.5)
(-0.13233717 -0.14995624 0)
(-0.13233717 -0.14995624 0.5)
(-0.12469796 -0.1563663 0)
(-0.12469796 -0.1563663 0.5)
(-0.11674874 -0.16238759 0)
(-0.11674874 -0.16238759 0.5)
(-0.10850925 -0.16800518 0.5)
(-0.10850925 -0.16800518 0)
(-0.1 -0.17320508 0.5)
(-0.1 -0.17320508 0)
(-0.091242135 -0.17797436 0.5)
(-0.091242135 -0.17797436 0)
(-0.08225742 -0.18230116 0.5)
(-0.08225742 -0.18230116 0)
(-0.073068202 -0.18617475 0.5)
(-0.073068202 -0.18617475 0)
(-0.063697331 -0.18958546 0)
(-0.063697331 -0.18958546 0.5)
(-0.054168094 -0.19252485 0)
(-0.054168094 -0.19252485 0.5)
(-0.044504188 -0.19498558 0)
(-0.044504188 -0.19498558 0.5)
(-0.034729637 -0.19696155 0)
(-0.034729637 -0.19696155 0.5)
(-0.024868742 -0.19844784 0)
(-0.024868742 -0.19844784 0.5)
(-0.014946018 -0.19944076 0)
(-0.014946018 -0.19944076 0.5)
(-0.0049861385 -0.19993784 0)
(-0.0049861385 -0.19993784 0.5)
(0.0049861385 -0.19993784 0)
(0.0049861385 -0.19993784 0.5)
(0.014946018 -0.19944076 0)
(0.014946018 -0.19944076 0.5)
(0.024868742 -0.19844784 0)
(0.024868742 -0.19844784 0.5)
(0.034729637 -0.19696155 0)
(0.034729637 -0.19696155 0.5)
(0.044504188 -0.19498558 0)
(0.044504188 -0.19498558 0.5)
(0.054168094 -0.19252485 0.5)
(0.054168094 -0.19252485 0)
(0.063697331 -0.18958546 0.5)
(0.063697331 -0.18958546 0)
(0.073068202 -0.18617475 0.5)
(0.073068202 -0.18617475 0)
(0.08225742 -0.18230116 0.5)
(0.08225742 -0.18230116 0)
(0.091242135 -0.17797436 0.5)
(0.091242135 -0.17797436 0)
(0.1 -0.17320508 0.5)
(0.1 -0.17320508 0)
(0.10850925 -0.16800518 0.5)
(0.10850925 -0.16800518 0)
(0.11674874 -0.16238759 0.5)
(0.11674874 -0.16238759 0)
(0.12469796 -0.1563663 0.5)
(0.12469796 -0.1563663 0)
(0.13233717 -0.14995624 0.5)
(0.13233717 -0.14995624 0)
(0.13964736 -0.14317337 0.5)
(0.13964736 -0.14317337 0)
(0.14661038 -0.13603455 0.5)
(0.14661038 -0.13603455 0)
(0.15320888 -0.12855752 0.5)
(0.15320888 -0.12855752 0)
(0.1594265 -0.12076088 0)
(0.1594265 -0.12076088 0.5)
(0.16524775 -0.11266401 0)
(0.16524775 -0.11266401 0.5)
(0.17065817 -0.10428704 0)
(0.17065817 -0.10428704 0.5)
(0.17564431 -0.095650792 0)
(0.17564431 -0.095650792 0.5)
(0.18019377 -0.086776748 0.5)
(0.18019377 -0.086776748 0)
(0.18429524 -0.077686958 0.5)
(0.18429524 -0.077686958 0)
(0.18793853 -0.068404026 0.5)
(0.18793853 -0.068404026 0)
(0.19111456 -0.058951035 0.5)
(0.19111456 -0.058951035 0)
(0.19381545 -0.04935148 0.5)
(0.19381545 -0.04935148 0)
(0.19603449 -0.039629228 0.5)
(0.19603449 -0.039629228 0)
(0.19776617 -0.029808452 0.5)
(0.19776617 -0.029808452 0)
(0.19900616 -0.019913569 0.5)
(0.19900616 -0.019913569 0)
(0.19975138 -0.0099691767 0.5)
(0.19975138 -0.0099691767 0)
)


// edges:

252
(
(0 1)
(2 3)
(4 2)
(1 5)
(6 4)
(5 7)
(8 6)
(7 9)
(10 8)
(9 11)
(12 10)
(11 13)
(14 12)
(13 15)
(16 14)
(15 17)
(18 16)
(17 19)
(20 18)
(21 20)
(19 22)
(22 23)
(23 24)
(25 21)
(24 26)
(27 25)
(26 28)
(29 27)
(30 29)
(28 31)
(32 30)
(31 33)
(34 32)
(35 34)
(33 36)
(36 37)
(37 38)
(39 35)
(40 39)
(41 40)
(38 42)
(43 41)
(42 44)
(44 45)
(46 43)
(45 47)
(48 46)
(47 49)
(50 48)
(49 51)
(52 50)
(51 53)
(54 52)
(53 55)
(56 54)
(55 57)
(58 56)
(57 59)
(60 58)
(59 61)
(62 60)
(61 63)
(64 62)
(65 64)
(63 66)
(66 67)
(68 65)
(67 69)
(70 68)
(69 71)
(72 70)
(71 73)
(74 72)
(73 75)
(75 76)
(77 74)
(76 78)
(79 77)
(78 80)
(81 79)
(80 82)
(83 81)
(82 84)
(85 83)
(84 86)
(87 85)
(86 88)
(89 87)
(88 90)
(91 89)
(90 92)
(93 91)
(92 94)
(95 93)
(96 95)
(94 97)
(98 96)
(97 99)
(100 98)
(99 101)
(102 100)
(101 103)
(104 102)
(105 104)
(103 106)
(106 107)
(108 105)
(107 109)
(110 108)
(109 111)
(112 110)
(111 113)
(114 112)
(113 115)
(116 114)
(115 117)
(118 116)
(117 119)
(120 118)
(119 121)
(122 120)
(121 123)
(123 124)
(125 122)
(124 126)
(127 125)
(126 128)
(129 127)
(128 130)
(131 129)
(130 132)
(133 131)
(132 134)
(135 133)
(134 136)
(137 135)
(136 138)
(139 137)
(138 140)
(141 139)
(140 142)
(143 141)
(142 144)
(145 143)
(144 146)
(147 145)
(146 148)
(149 147)
(148 150)
(151 149)
(150 152)
(153 151)
(152 154)
(155 153)
(154 156)
(157 155)
(156 158)
(159 157)
(158 160)
(161 159)
(160 162)
(163 161)
(162 164)
(165 163)
(166 165)
(164 167)
(168 166)
(167 169)
(170 168)
(169 171)
(172 170)
(171 173)
(174 172)
(173 175)
(175 176)
(177 174)
(176 178)
(179 177)
(178 180)
(181 179)
(180 182)
(183 181)
(182 184)
(185 183)
(184 186)
(187 185)
(186 188)
(189 187)
(188 190)
(191 189)
(190 192)
(193 191)
(192 194)
(195 193)
(194 196)
(197 195)
(196 198)
(199 197)
(200 199)
(198 201)
(202 200)
(201 203)
(204 202)
(203 205)
(206 204)
(205 207)
(208 206)
(207 209)
(210 208)
(209 211)
(212 210)
(211 213)
(214 212)
(213 215)
(216 214)
(215 217)
(218 216)
(217 219)
(220 218)
(219 221)
(222 220)
(221 223)
(224 222)
(223 225)
(225 226)
(227 224)
(226 228)
(229 227)
(228 230)
(231 229)
(230 232)
(233 231)
(234 233)
(232 235)
(236 234)
(235 237)
(238 236)
(237 239)
(240 238)
(239 241)
(242 240)
(241 243)
(244 242)
(243 245)
(246 244)
(245 247)
(248 246)
(247 249)
(250 248)
(249 251)
(3 250)
(251 0)
)

// * * * * * * * * * * * * * * * * * * * * * * * * * * * * * * * * * * * * * //


// ************************************************************************* //
