/*--------------------------------*- C++ -*----------------------------------*\
| =========                 |                                                 |
| \\      /  F ield         | OpenFOAM: The Open Source CFD Toolbox           |
|  \\    /   O peration     | Version:  2406                                  |
|   \\  /    A nd           | Website:  www.openfoam.com                      |
|    \\/     M anipulation  |                                                 |
\*---------------------------------------------------------------------------*/
FoamFile
{
    version     2.0;
    format      ascii;
    arch        "LSB;label=32;scalar=64";
    class       extendedFeatureEdgeMesh;
    location    "constant/extendedFeatureEdgeMesh";
    object      vessel.extendedFeatureEdgeMesh;
}
// * * * * * * * * * * * * * * * * * * * * * * * * * * * * * * * * * * * * * //

// points

252
(
(0.2 0 0)
(0.19975138 0.0099691767 0)
(0.19975138 0.0099691767 0.5)
(0.2 0 0.5)
(0.19900616 0.019913569 0.5)
(0.19900616 0.019913569 0)
(0.19776617 0.029808452 0.5)
(0.19776617 0.029808452 0)
(0.19603449 0.039629228 0.5)
(0.19603449 0.039629228 0)
(0.19381545 0.04935148 0.5)
(0.19381545 0.04935148 0)
(0.19111456 0.058951035 0.5)
(0.19111456 0.058951035 0)
(0.18793853 0.068404026 0.5)
(0.18793853 0.068404026 0)
(0.18429524 0.077686958 0.5)
(0.18429524 0.077686958 0)
(0.18019377 0.086776748 0.5)
(0.18019377 0.086776748 0)
(0.17564431 0.095650792 0.5)
(0.17065817 0.10428704 0.5)
(0.17564431 0.095650792 0)
(0.17065817 0.10428704 0)
(0.16524775 0.11266401 0)
(0.16524775 0.11266401 0.5)
(0.1594265 0.12076088 0)
(0.1594265 0.12076088 0.5)
(0.15320888 0.12855752 0)
(0.15320888 0.12855752 0.5)
(0.14661038 0.13603455 0.5)
(0.14661038 0.13603455 0)
(0.13964736 0.14317337 0.5)
(0.13964736 0.14317337 0)
(0.13233717 0.14995624 0.5)
(0.12469796 0.1563663 0.5)
(0.13233717 0.14995624 0)
(0.12469796 0.1563663 0)
(0.11674874 0.16238759 0)
(0.11674874 0.16238759 0.5)
(0.10850925 0.16800518 0.5)
(0.1 0.17320508 0.5)
(0.10850925 0.16800518 0)
(0.091242135 0.17797436 0.5)
(0.1 0.17320508 0)
(0.091242135 0.17797436 0)
(0.08225742 0.18230116 0.5)
(0.08225742 0.18230116 0)
(0.073068202 0.18617475 0.5)
(0.073068202 0.18617475 0)
(0.063697331 0.18958546 0.5)
(0.063697331 0.18958546 0)
(0.054168094 0.19252485 0.5)
(0.054168094 0.19252485 0)
(0.044504188 0.19498558 0.5)
(0.044504188 0.19498558 0)
(0.034729637 0.19696155 0.5)
(0.034729637 0.19696155 0)
(0.024868742 0.19844784 0.5)
(0.024868742 0.19844784 0)
(0.014946018 0.19944076 0.5)
(0.014946018 0.19944076 0)
(0.0049861385 0.19993784 0.5)
(0.0049861385 0.19993784 0)
(-0.0049861385 0.19993784 0.5)
(-0.014946018 0.19944076 0.5)
(-0.0049861385 0.19993784 0)
(-0.014946018 0.19944076 0)
(-0.024868742 0.19844784 0.5)
(-0.024868742 0.19844784 0)
(-0.034729637 0.19696155 0.5)
(-0.034729637 0.19696155 0)
(-0.044504188 0.19498558 0.5)
(-0.044504188 0.19498558 0)
(-0.054168094 0.19252485 0.5)
(-0.054168094 0.19252485 0)
(-0.063697331 0.18958546 0)
(-0.063697331 0.18958546 0.5)
(-0.073068202 0.18617475 0)
(-0.073068202 0.18617475 0.5)
(-0.08225742 0.18230116 0)
(-0.08225742 0.18230116 0.5)
(-0.091242135 0.17797436 0)
(-0.091242135 0.17797436 0.5)
(-0.1 0.17320508 0)
(-0.1 0.17320508 0.5)
(-0.10850925 0.16800518 0)
(-0.10850925 0.16800518 0.5)
(-0.11674874 0.16238759 0)
(-0.11674874 0.16238759 0.5)
(-0.12469796 0.1563663 0)
(-0.12469796 0.1563663 0.5)
(-0.13233717 0.14995624 0)
(-0.13233717 0.14995624 0.5)
(-0.13964736 0.14317337 0)
(-0.13964736 0.14317337 0.5)
(-0.14661038 0.13603455 0.5)
(-0.14661038 0.13603455 0)
(-0.15320888 0.12855752 0.5)
(-0.15320888 0.12855752 0)
(-0.1594265 0.12076088 0.5)
(-0.1594265 0.12076088 0)
(-0.16524775 0.11266401 0.5)
(-0.16524775 0.11266401 0)
(-0.17065817 0.10428704 0.5)
(-0.17564431 0.095650792 0.5)
(-0.17065817 0.10428704 0)
(-0.17564431 0.095650792 0)
(-0.18019377 0.086776748 0.5)
(-0.18019377 0.086776748 0)
(-0.18429524 0.077686958 0.5)
(-0.18429524 0.077686958 0)
(-0.18793853 0.068404026 0.5)
(-0.18793853 0.068404026 0)
(-0.19111456 0.058951035 0.5)
(-0.19111456 0.058951035 0)
(-0.19381545 0.04935148 0.5)
(-0.19381545 0.04935148 0)
(-0.19603449 0.039629228 0.5)
(-0.19603449 0.039629228 0)
(-0.19776617 0.029808452 0.5)
(-0.19776617 0.029808452 0)
(-0.19900616 0.019913569 0.5)
(-0.19900616 0.019913569 0)
(-0.19975138 0.0099691767 0)
(-0.19975138 0.0099691767 0.5)
(-0.2 -6.8604978e-16 0)
(-0.2 -6.8604978e-16 0.5)
(-0.19975138 -0.0099691767 0)
(-0.19975138 -0.0099691767 0.5)
(-0.19900616 -0.019913569 0)
(-0.19900616 -0.019913569 0.5)
(-0.19776617 -0.029808452 0)
(-0.19776617 -0.029808452 0.5)
(-0.19603449 -0.039629228 0)
(-0.19603449 -0.039629228 0.5)
(-0.19381545 -0.04935148 0)
(-0.19381545 -0.04935148 0.5)
(-0.19111456 -0.058951035 0)
(-0.19111456 -0.058951035 0.5)
(-0.18793853 -0.068404026 0)
(-0.18793853 -0.068404026 0.5)
(-0.18429524 -0.077686958 0)
(-0.18429524 -0.077686958 0.5)
(-0.18019377 -0.086776748 0)
(-0.18019377 -0.086776748 0.5)
(-0.17564431 -0.095650792 0)
(-0.17564431 -0.095650792 0.5)
(-0.17065817 -0.10428704 0)
(-0.17065817 -0.10428704 0.5)
(-0.16524775 -0.11266401 0)
(-0.16524775 -0.11266401 0.5)
(-0.1594265 -0.12076088 0)
(-0.1594265 -0.12076088 0.5)
(-0.15320888 -0.12855752 0)
(-0.15320888 -0.12855752 0.5)
(-0.14661038 -0.13603455 0)
(-0.14661038 -0.13603455 0.5)
(-0.13964736 -0.14317337 0)
(-0.13964736 -0.14317337 0.5)
(-0.13233717 -0.14995624 0)
(-0.13233717 -0.14995624 0.5)
(-0.12469796 -0.1563663 0)
(-0.12469796 -0.1563663 0.5)
(-0.11674874 -0.16238759 0)
(-0.11674874 -0.16238759 0.5)
(-0.10850925 -0.16800518 0.5)
(-0.10850925 -0.16800518 0)
(-0.1 -0.17320508 0.5)
(-0.1 -0.17320508 0)
(-0.091242135 -0.17797436 0.5)
(-0.091242135 -0.17797436 0)
(-0.08225742 -0.18230116 0.5)
(-0.08225742 -0.18230116 0)
(-0.073068202 -0.18617475 0.5)
(-0.073068202 -0.18617475 0)
(-0.063697331 -0.18958546 0)
(-0.063697331 -0.18958546 0.5)
(-0.054168094 -0.19252485 0)
(-0.054168094 -0.19252485 0.5)
(-0.044504188 -0.19498558 0)
(-0.044504188 -0.19498558 0.5)
(-0.034729637 -0.19696155 0)
(-0.034729637 -0.19696155 0.5)
(-0.024868742 -0.19844784 0)
(-0.024868742 -0.19844784 0.5)
(-0.014946018 -0.19944076 0)
(-0.014946018 -0.19944076 0.5)
(-0.0049861385 -0.19993784 0)
(-0.0049861385 -0.19993784 0.5)
(0.0049861385 -0.19993784 0)
(0.0049861385 -0.19993784 0.5)
(0.014946018 -0.19944076 0)
(0.014946018 -0.19944076 0.5)
(0.024868742 -0.19844784 0)
(0.024868742 -0.19844784 0.5)
(0.034729637 -0.19696155 0)
(0.034729637 -0.19696155 0.5)
(0.044504188 -0.19498558 0)
(0.044504188 -0.19498558 0.5)
(0.054168094 -0.19252485 0.5)
(0.054168094 -0.19252485 0)
(0.063697331 -0.18958546 0.5)
(0.063697331 -0.18958546 0)
(0.073068202 -0.18617475 0.5)
(0.073068202 -0.18617475 0)
(0.08225742 -0.18230116 0.5)
(0.08225742 -0.18230116 0)
(0.091242135 -0.17797436 0.5)
(0.091242135 -0.17797436 0)
(0.1 -0.17320508 0.5)
(0.1 -0.17320508 0)
(0.10850925 -0.16800518 0.5)
(0.10850925 -0.16800518 0)
(0.11674874 -0.16238759 0.5)
(0.11674874 -0.16238759 0)
(0.12469796 -0.1563663 0.5)
(0.12469796 -0.1563663 0)
(0.13233717 -0.14995624 0.5)
(0.13233717 -0.14995624 0)
(0.13964736 -0.14317337 0.5)
(0.13964736 -0.14317337 0)
(0.14661038 -0.13603455 0.5)
(0.14661038 -0.13603455 0)
(0.15320888 -0.12855752 0.5)
(0.15320888 -0.12855752 0)
(0.1594265 -0.12076088 0)
(0.1594265 -0.12076088 0.5)
(0.16524775 -0.11266401 0)
(0.16524775 -0.11266401 0.5)
(0.17065817 -0.10428704 0)
(0.17065817 -0.10428704 0.5)
(0.17564431 -0.095650792 0)
(0.17564431 -0.095650792 0.5)
(0.18019377 -0.086776748 0.5)
(0.18019377 -0.086776748 0)
(0.18429524 -0.077686958 0.5)
(0.18429524 -0.077686958 0)
(0.18793853 -0.068404026 0.5)
(0.18793853 -0.068404026 0)
(0.19111456 -0.058951035 0.5)
(0.19111456 -0.058951035 0)
(0.19381545 -0.04935148 0.5)
(0.19381545 -0.04935148 0)
(0.19603449 -0.039629228 0.5)
(0.19603449 -0.039629228 0)
(0.19776617 -0.029808452 0.5)
(0.19776617 -0.029808452 0)
(0.19900616 -0.019913569 0.5)
(0.19900616 -0.019913569 0)
(0.19975138 -0.0099691767 0.5)
(0.19975138 -0.0099691767 0)
)

// edges

252
(
(0 1)
(2 3)
(4 2)
(1 5)
(6 4)
(5 7)
(8 6)
(7 9)
(10 8)
(9 11)
(12 10)
(11 13)
(14 12)
(13 15)
(16 14)
(15 17)
(18 16)
(17 19)
(20 18)
(21 20)
(19 22)
(22 23)
(23 24)
(25 21)
(24 26)
(27 25)
(26 28)
(29 27)
(30 29)
(28 31)
(32 30)
(31 33)
(34 32)
(35 34)
(33 36)
(36 37)
(37 38)
(39 35)
(40 39)
(41 40)
(38 42)
(43 41)
(42 44)
(44 45)
(46 43)
(45 47)
(48 46)
(47 49)
(50 48)
(49 51)
(52 50)
(51 53)
(54 52)
(53 55)
(56 54)
(55 57)
(58 56)
(57 59)
(60 58)
(59 61)
(62 60)
(61 63)
(64 62)
(65 64)
(63 66)
(66 67)
(68 65)
(67 69)
(70 68)
(69 71)
(72 70)
(71 73)
(74 72)
(73 75)
(75 76)
(77 74)
(76 78)
(79 77)
(78 80)
(81 79)
(80 82)
(83 81)
(82 84)
(85 83)
(84 86)
(87 85)
(86 88)
(89 87)
(88 90)
(91 89)
(90 92)
(93 91)
(92 94)
(95 93)
(96 95)
(94 97)
(98 96)
(97 99)
(100 98)
(99 101)
(102 100)
(101 103)
(104 102)
(105 104)
(103 106)
(106 107)
(108 105)
(107 109)
(110 108)
(109 111)
(112 110)
(111 113)
(114 112)
(113 115)
(116 114)
(115 117)
(118 116)
(117 119)
(120 118)
(119 121)
(122 120)
(121 123)
(123 124)
(125 122)
(124 126)
(127 125)
(126 128)
(129 127)
(128 130)
(131 129)
(130 132)
(133 131)
(132 134)
(135 133)
(134 136)
(137 135)
(136 138)
(139 137)
(138 140)
(141 139)
(140 142)
(143 141)
(142 144)
(145 143)
(144 146)
(147 145)
(146 148)
(149 147)
(148 150)
(151 149)
(150 152)
(153 151)
(152 154)
(155 153)
(154 156)
(157 155)
(156 158)
(159 157)
(158 160)
(161 159)
(160 162)
(163 161)
(162 164)
(165 163)
(166 165)
(164 167)
(168 166)
(167 169)
(170 168)
(169 171)
(172 170)
(171 173)
(174 172)
(173 175)
(175 176)
(177 174)
(176 178)
(179 177)
(178 180)
(181 179)
(180 182)
(183 181)
(182 184)
(185 183)
(184 186)
(187 185)
(186 188)
(189 187)
(188 190)
(191 189)
(190 192)
(193 191)
(192 194)
(195 193)
(194 196)
(197 195)
(196 198)
(199 197)
(200 199)
(198 201)
(202 200)
(201 203)
(204 202)
(203 205)
(206 204)
(205 207)
(208 206)
(207 209)
(210 208)
(209 211)
(212 210)
(211 213)
(214 212)
(213 215)
(216 214)
(215 217)
(218 216)
(217 219)
(220 218)
(219 221)
(222 220)
(221 223)
(224 222)
(223 225)
(225 226)
(227 224)
(226 228)
(229 227)
(228 230)
(231 229)
(230 232)
(233 231)
(234 233)
(232 235)
(236 234)
(235 237)
(238 236)
(237 239)
(240 238)
(239 241)
(242 240)
(241 243)
(244 242)
(243 245)
(246 244)
(245 247)
(248 246)
(247 249)
(250 248)
(249 251)
(3 250)
(251 0)
)

// concaveStart mixedStart nonFeatureStart
0 0 0
// internalStart flatStart openStart multipleStart
252 252 252 252
// normals

462
(
(0.99968916 0.024931707 0)
(0 0 -1)
(0.99968916 0.024931707 -0)
(0 0 1)
(0.99720385 0.074729374 -0)
(0 0 1)
(0.99720385 0.074729374 0)
(0 0 -1)
(0.99223926 0.12434326 -0)
(0.99223926 0.12434326 0)
(0.98480756 0.17364925 -0)
(0 0 1)
(0.98480756 0.17364925 0)
(0 0 -1)
(0.974928 0.22252053 -0)
(0.974928 0.22252053 0)
(0.96262427 0.27084038 -0)
(0 0 1)
(0.96262427 0.27084038 0)
(0 0 -1)
(0.94792743 0.31848641 -0)
(0 0 1)
(0.94792743 0.31848641 0)
(0 0 -1)
(0.93087351 0.36534163 -0)
(0.93087351 0.36534163 0)
(0.91150583 0.41128715 -0)
(0 0 1)
(0.91150583 0.41128715 0)
(0 0 -1)
(0.88987174 0.4562108 -0)
(0.86602561 0.49999964 -0)
(0 0 1)
(0.88987174 0.4562108 0)
(0.86602561 0.49999964 -0)
(0 0 -1)
(0.84002608 0.54254602 0)
(0 0 -1)
(0.84002608 0.54254602 -0)
(0 0 1)
(0.81193765 0.58374416 0)
(0 0 -1)
(0.81193765 0.58374416 -0)
(0 0 1)
(0.78183135 0.62348997 0)
(0.78183135 0.62348997 -0)
(0.74978199 0.66168494 -0)
(0 0 1)
(0.74978199 0.66168494 0)
(0 0 -1)
(0.71586647 0.69823721 -0)
(0.71586647 0.69823721 0)
(0.68017291 0.73305172 -0)
(0 0 1)
(0.642788 0.76604412 -0)
(0.68017291 0.73305172 0)
(0 0 -1)
(0.642788 0.76604412 -0)
(0.60380356 0.79713315 0)
(0 0 -1)
(0.60380356 0.79713315 -0)
(0 0 1)
(0.56332025 0.82623864 -0)
(0.52143526 0.85329085 -0)
(0 0 1)
(0.56332025 0.82623864 0)
(0.47825401 0.87822156 -0)
(0 0 1)
(0.52143526 0.85329085 -0)
(0 0 -1)
(0.47825401 0.87822156 -0)
(0 0 -1)
(0.43388332 0.90096907 -0)
(0 0 1)
(0.43388332 0.90096907 0)
(0 0 -1)
(0.38843533 0.92147598 -0)
(0.38843533 0.92147598 0)
(0.3420196 0.93969282 -0)
(0 0 1)
(0.3420196 0.93969282 0)
(0 0 -1)
(0.2947559 0.95557258 -0)
(0 0 1)
(0.2947559 0.95557258 0)
(0 0 -1)
(0.24675742 0.96907728 -0)
(0.24675742 0.96907728 0)
(0.19814618 0.98017248 -0)
(0 0 1)
(0.19814618 0.98017248 0)
(0 0 -1)
(0.14904184 0.98883089 -0)
(0 0 1)
(0.14904184 0.98883089 0)
(0 0 -1)
(0.099568418 0.99503072 -0)
(0 0 1)
(0.099568418 0.99503072 0)
(0 0 -1)
(0.049845486 0.99875694 -0)
(0 0 1)
(0.049845486 0.99875694 0)
(0 0 -1)
(0 1 0)
(0 0 1)
(-0.049845486 0.99875694 0)
(0 0 1)
(0 1 0)
(0 0 -1)
(-0.049845486 0.99875694 0)
(0 0 -1)
(-0.099568418 0.99503072 0)
(0 0 1)
(-0.099568418 0.99503072 0)
(0 0 -1)
(-0.14904184 0.98883089 0)
(0 0 1)
(-0.14904184 0.98883089 0)
(0 0 -1)
(-0.19814618 0.98017248 0)
(0 0 1)
(-0.19814618 0.98017248 0)
(0 0 -1)
(-0.24675742 0.96907728 0)
(0 0 1)
(-0.24675742 0.96907728 0)
(0 0 -1)
(-0.2947559 0.95557258 0)
(0 0 -1)
(-0.2947559 0.95557258 0)
(0 0 1)
(-0.3420196 0.93969282 0)
(0 0 -1)
(-0.3420196 0.93969282 0)
(0 0 1)
(-0.38843533 0.92147598 0)
(-0.38843533 0.92147598 0)
(-0.43388332 0.90096907 0)
(0 0 -1)
(-0.43388332 0.90096907 0)
(0 0 1)
(-0.47825401 0.87822156 0)
(-0.47825401 0.87822156 0)
(-0.52143526 0.85329085 0)
(0 0 -1)
(-0.52143526 0.85329085 0)
(0 0 1)
(-0.56332025 0.82623864 0)
(0 0 -1)
(-0.56332025 0.82623864 0)
(0 0 1)
(-0.60380356 0.79713315 0)
(0 0 -1)
(-0.60380356 0.79713315 0)
(0 0 1)
(-0.642788 0.76604412 0)
(-0.642788 0.76604412 0)
(-0.68017291 0.73305172 0)
(0 0 -1)
(-0.68017291 0.73305172 0)
(0 0 1)
(-0.71586647 0.69823721 0)
(0 0 1)
(-0.71586647 0.69823721 0)
(-0 0 -1)
(-0.74978199 0.66168494 0)
(0 0 1)
(-0.74978199 0.66168494 0)
(0 0 -1)
(-0.78183135 0.62348997 0)
(0 0 1)
(-0.78183135 0.62348997 0)
(0 0 -1)
(-0.81193765 0.58374416 0)
(0 0 1)
(-0.81193765 0.58374416 0)
(0 0 -1)
(-0.84002608 0.54254602 0)
(0 0 1)
(-0.86602561 0.49999964 0)
(0 0 1)
(-0.84002608 0.54254602 0)
(0 0 -1)
(-0.86602561 0.49999964 0)
(0 0 -1)
(-0.88987174 0.4562108 0)
(0 0 1)
(-0.88987174 0.4562108 0)
(0 0 -1)
(-0.91150583 0.41128715 0)
(0 0 1)
(-0.91150583 0.41128715 0)
(0 0 -1)
(-0.93087351 0.36534163 0)
(0 0 1)
(-0.93087351 0.36534163 0)
(0 0 -1)
(-0.94792743 0.31848641 0)
(0 0 1)
(-0.94792743 0.31848641 0)
(0 0 -1)
(-0.96262427 0.27084038 0)
(0 0 1)
(-0.96262427 0.27084038 0)
(0 0 -1)
(-0.974928 0.22252053 0)
(0 0 1)
(-0.974928 0.22252053 0)
(0 0 -1)
(-0.98480756 0.17364925 0)
(0 0 1)
(-0.98480756 0.17364925 0)
(0 0 -1)
(-0.99223926 0.12434326 0)
(0 0 1)
(-0.99223926 0.12434326 0)
(0 0 -1)
(-0.99720385 0.074729374 0)
(0 0 -1)
(-0.99720385 0.074729374 0)
(0 0 1)
(-0.99968916 0.024931707 0)
(0 0 -1)
(-0.99968916 0.024931707 0)
(0 0 1)
(-0.99968916 -0.024931707 0)
(0 0 -1)
(-0.99968916 -0.024931707 0)
(0 0 1)
(-0.99720385 -0.074729374 0)
(0 0 -1)
(-0.99720385 -0.074729374 0)
(0 0 1)
(-0.99223926 -0.12434326 0)
(0 0 -1)
(-0.99223926 -0.12434326 0)
(0 0 1)
(-0.98480756 -0.17364925 0)
(0 0 -1)
(-0.98480756 -0.17364925 0)
(0 0 1)
(-0.974928 -0.22252053 0)
(0 0 -1)
(-0.974928 -0.22252053 0)
(0 0 1)
(-0.96262427 -0.27084038 0)
(0 0 -1)
(-0.96262427 -0.27084038 0)
(0 0 1)
(-0.94792743 -0.31848641 0)
(0 0 -1)
(-0.94792743 -0.31848641 0)
(0 0 1)
(-0.93087351 -0.36534163 0)
(0 0 -1)
(-0.93087351 -0.36534163 0)
(0 0 1)
(-0.91150583 -0.41128715 0)
(0 0 -1)
(-0.91150583 -0.41128715 0)
(0 0 1)
(-0.88987174 -0.4562108 0)
(0 0 -1)
(-0.88987174 -0.4562108 0)
(0 0 1)
(-0.86602561 -0.49999964 0)
(0 0 -1)
(-0.86602561 -0.49999964 0)
(0 0 1)
(-0.84002608 -0.54254602 0)
(0 0 -1)
(-0.84002608 -0.54254602 0)
(0 0 1)
(-0.81193765 -0.58374416 0)
(0 0 -1)
(-0.81193765 -0.58374416 0)
(0 0 1)
(-0.78183135 -0.62348997 0)
(0 0 -1)
(-0.78183135 -0.62348997 0)
(0 0 1)
(-0.74978199 -0.66168494 0)
(0 0 -1)
(-0.74978199 -0.66168494 0)
(0 0 1)
(-0.71586647 -0.69823721 0)
(0 0 -1)
(-0.71586647 -0.69823721 0)
(0 0 1)
(-0.68017291 -0.73305172 0)
(0 0 -1)
(-0.68017291 -0.73305172 0)
(0 0 1)
(-0.642788 -0.76604412 0)
(0 0 -1)
(-0.642788 -0.76604412 0)
(0 0 1)
(-0.60380356 -0.79713315 0)
(0 0 -1)
(-0.60380356 -0.79713315 0)
(0 0 1)
(-0.56332025 -0.82623864 0)
(0 0 1)
(-0.56332025 -0.82623864 0)
(0 0 -1)
(-0.52143526 -0.85329085 0)
(0 0 1)
(-0.52143526 -0.85329085 0)
(0 0 -1)
(-0.47825401 -0.87822156 0)
(0 0 1)
(-0.47825401 -0.87822156 0)
(0 0 -1)
(-0.43388332 -0.90096907 0)
(0 0 1)
(-0.43388332 -0.90096907 0)
(0 0 -1)
(-0.38843533 -0.92147598 0)
(0 0 1)
(-0.38843533 -0.92147598 0)
(0 0 -1)
(-0.3420196 -0.93969282 0)
(0 0 -1)
(-0.3420196 -0.93969282 0)
(0 0 1)
(-0.2947559 -0.95557258 0)
(0 0 -1)
(-0.2947559 -0.95557258 0)
(0 0 1)
(-0.24675742 -0.96907728 0)
(0 0 -1)
(-0.24675742 -0.96907728 0)
(0 0 1)
(-0.19814618 -0.98017248 0)
(0 0 -1)
(-0.19814618 -0.98017248 0)
(0 0 1)
(-0.14904184 -0.98883089 0)
(0 0 -1)
(-0.14904184 -0.98883089 0)
(0 0 1)
(-0.099568418 -0.99503072 0)
(0 0 -1)
(-0.099568418 -0.99503072 0)
(0 0 1)
(-0.049845486 -0.99875694 0)
(0 0 -1)
(-0.049845486 -0.99875694 0)
(0 0 1)
(0 -1 0)
(0 0 -1)
(0 -1 0)
(0 0 1)
(0.049845486 -0.99875694 0)
(0 0 -1)
(0.049845486 -0.99875694 0)
(0 0 1)
(0.099568418 -0.99503072 0)
(0 0 -1)
(0.099568418 -0.99503072 0)
(0 0 1)
(0.14904184 -0.98883089 0)
(0 0 -1)
(0.14904184 -0.98883089 0)
(0 0 1)
(0.19814618 -0.98017248 0)
(0 0 -1)
(0.19814618 -0.98017248 0)
(0 0 1)
(0.24675742 -0.96907728 0)
(0 0 1)
(0.24675742 -0.96907728 0)
(0 0 -1)
(0.2947559 -0.95557258 0)
(0 0 1)
(0.2947559 -0.95557258 0)
(0 0 -1)
(0.3420196 -0.93969282 0)
(0 0 1)
(0.3420196 -0.93969282 0)
(0 0 -1)
(0.38843533 -0.92147598 0)
(0 0 1)
(0.38843533 -0.92147598 0)
(0 0 -1)
(0.43388332 -0.90096907 0)
(0 0 1)
(0.43388332 -0.90096907 0)
(0 0 -1)
(0.47825401 -0.87822156 0)
(0.47825401 -0.87822156 0)
(0.52143526 -0.85329085 0)
(0 0 1)
(0.52143526 -0.85329085 0)
(0 0 -1)
(0.56332025 -0.82623864 0)
(0.56332025 -0.82623864 0)
(0.60380356 -0.79713315 0)
(0 0 1)
(0.60380356 -0.79713315 0)
(0 0 -1)
(0.642788 -0.76604412 0)
(0 0 1)
(0.642788 -0.76604412 0)
(0 0 -1)
(0.68017291 -0.73305172 0)
(0.68017291 -0.73305172 0)
(0.71586647 -0.69823721 0)
(0 0 1)
(0.71586647 -0.69823721 0)
(0 0 -1)
(0.74978199 -0.66168494 0)
(0.74978199 -0.66168494 0)
(0.78183135 -0.62348997 0)
(0 0 -1)
(0.78183135 -0.62348997 0)
(0 0 1)
(0.81193765 -0.58374416 0)
(0 0 -1)
(0.81193765 -0.58374416 0)
(0 0 1)
(0.84002608 -0.54254602 0)
(0 0 -1)
(0.84002608 -0.54254602 0)
(0 0 1)
(0.86602561 -0.49999964 0)
(0.86602561 -0.49999964 0)
(0.88987174 -0.4562108 0)
(0 0 1)
(0.88987174 -0.4562108 0)
(0 0 -1)
(0.91150583 -0.41128715 0)
(0 0 1)
(0.91150583 -0.41128715 0)
(0 0 -1)
(0.93087351 -0.36534163 0)
(0 0 1)
(0.93087351 -0.36534163 0)
(0 0 -1)
(0.94792743 -0.31848641 0)
(0 0 1)
(0.94792743 -0.31848641 0)
(0 0 -1)
(0.96262427 -0.27084038 0)
(0.96262427 -0.27084038 0)
(0.974928 -0.22252053 0)
(0 0 1)
(0.974928 -0.22252053 0)
(0 0 -1)
(0.98480756 -0.17364925 0)
(0 0 1)
(0.98480756 -0.17364925 0)
(0 0 -1)
(0.99223926 -0.12434326 0)
(0.99223926 -0.12434326 0)
(0.99720385 -0.074729374 0)
(0 0 1)
(0.99720385 -0.074729374 0)
(0 0 -1)
(0.99968916 -0.024931707 0)
(0.99968916 -0.024931707 0)
)

// normal volume types

462
(
0
0
0
0
0
0
0
0
0
0
0
0
0
0
0
0
0
0
0
0
0
0
0
0
0
0
0
0
0
0
0
0
0
0
0
0
0
0
0
0
0
0
0
0
0
0
0
0
0
0
0
0
0
0
0
0
0
0
0
0
0
0
0
0
0
0
0
0
0
0
0
0
0
0
0
0
0
0
0
0
0
0
0
0
0
0
0
0
0
0
0
0
0
0
0
0
0
0
0
0
0
0
0
0
0
0
0
0
0
0
0
0
0
0
0
0
0
0
0
0
0
0
0
0
0
0
0
0
0
0
0
0
0
0
0
0
0
0
0
0
0
0
0
0
0
0
0
0
0
0
0
0
0
0
0
0
0
0
0
0
0
0
0
0
0
0
0
0
0
0
0
0
0
0
0
0
0
0
0
0
0
0
0
0
0
0
0
0
0
0
0
0
0
0
0
0
0
0
0
0
0
0
0
0
0
0
0
0
0
0
0
0
0
0
0
0
0
0
0
0
0
0
0
0
0
0
0
0
0
0
0
0
0
0
0
0
0
0
0
0
0
0
0
0
0
0
0
0
0
0
0
0
0
0
0
0
0
0
0
0
0
0
0
0
0
0
0
0
0
0
0
0
0
0
0
0
0
0
0
0
0
0
0
0
0
0
0
0
0
0
0
0
0
0
0
0
0
0
0
0
0
0
0
0
0
0
0
0
0
0
0
0
0
0
0
0
0
0
0
0
0
0
0
0
0
0
0
0
0
0
0
0
0
0
0
0
0
0
0
0
0
0
0
0
0
0
0
0
0
0
0
0
0
0
0
0
0
0
0
0
0
0
0
0
0
0
0
0
0
0
0
0
0
0
0
0
0
0
0
0
0
0
0
0
0
0
0
0
0
0
0
0
0
0
0
0
0
0
0
0
0
0
0
0
0
0
0
0
0
0
0
0
0
0
0
0
0
0
0
0
0
0
0
0
0
0
0
0
0
0
0
0
0
0
0
0
0
0
0
0
0
0
0
0
0
0
0
0
0
0
0
0
0
0
0
0
0
0
0
0
0
0
)

// normalDirections

252
(
2(1 -1)
2(1 -1)
2(1 -1)
2(1 -1)
2(1 -1)
2(1 -1)
2(1 -1)
2(1 -1)
2(1 -1)
2(1 -1)
2(1 -1)
2(1 -1)
2(1 -1)
2(1 -1)
2(1 -1)
2(1 -1)
2(1 -1)
2(1 -1)
2(1 -1)
2(1 -1)
2(1 -1)
2(1 -1)
2(1 -1)
2(1 -1)
2(1 -1)
2(1 -1)
2(1 -1)
2(1 -1)
2(1 -1)
2(1 -1)
2(1 -1)
2(1 -1)
2(1 -1)
2(1 -1)
2(1 -1)
2(1 -1)
2(1 -1)
2(1 -1)
2(1 -1)
2(1 -1)
2(1 -1)
2(1 -1)
2(1 -1)
2(1 -1)
2(1 -1)
2(1 -1)
2(1 -1)
2(1 -1)
2(1 -1)
2(1 -1)
2(1 -1)
2(1 -1)
2(1 -1)
2(1 -1)
2(1 -1)
2(1 -1)
2(1 -1)
2(1 -1)
2(1 -1)
2(1 -1)
2(1 -1)
2(1 -1)
2(1 -1)
2(1 -1)
2(1 -1)
2(1 -1)
2(1 -1)
2(1 -1)
2(1 -1)
2(1 -1)
2(1 -1)
2(1 -1)
2(1 -1)
2(1 -1)
2(1 -1)
2(1 -1)
2(1 -1)
2(1 -1)
2(1 -1)
2(1 -1)
2(1 -1)
2(1 -1)
2(1 -1)
2(1 -1)
2(1 -1)
2(1 -1)
2(1 -1)
2(1 -1)
2(1 -1)
2(1 -1)
2(1 -1)
2(1 -1)
2(1 -1)
2(1 -1)
2(1 -1)
2(1 -1)
2(1 -1)
2(1 -1)
2(1 -1)
2(1 -1)
2(1 -1)
2(1 -1)
2(1 -1)
2(1 -1)
2(1 -1)
2(1 -1)
2(1 -1)
2(1 -1)
2(1 -1)
2(1 -1)
2(1 -1)
2(1 -1)
2(1 -1)
2(1 -1)
2(1 -1)
2(1 -1)
2(1 -1)
2(1 -1)
2(1 -1)
2(1 -1)
2(1 -1)
2(1 -1)
2(1 -1)
2(1 -1)
2(1 -1)
2(1 -1)
2(1 -1)
2(1 -1)
2(1 -1)
2(1 -1)
2(1 -1)
2(1 -1)
2(1 -1)
2(1 -1)
2(1 -1)
2(1 -1)
2(1 -1)
2(1 -1)
2(1 -1)
2(1 -1)
2(1 -1)
2(1 -1)
2(1 -1)
2(1 -1)
2(1 -1)
2(1 -1)
2(1 -1)
2(1 -1)
2(1 -1)
2(1 -1)
2(1 -1)
2(1 -1)
2(1 -1)
2(1 -1)
2(1 -1)
2(1 -1)
2(1 -1)
2(1 -1)
2(1 -1)
2(1 -1)
2(1 -1)
2(1 -1)
2(1 -1)
2(1 -1)
2(1 -1)
2(1 -1)
2(1 -1)
2(1 -1)
2(1 -1)
2(1 -1)
2(1 -1)
2(1 -1)
2(1 -1)
2(1 -1)
2(1 -1)
2(1 -1)
2(1 -1)
2(1 -1)
2(1 -1)
2(1 -1)
2(1 -1)
2(1 -1)
2(1 -1)
2(1 -1)
2(1 -1)
2(1 -1)
2(1 -1)
2(1 -1)
2(1 -1)
2(1 -1)
2(1 -1)
2(1 -1)
2(1 -1)
2(1 -1)
2(1 -1)
2(1 -1)
2(1 -1)
2(1 -1)
2(1 -1)
2(1 -1)
2(1 -1)
2(1 -1)
2(1 -1)
2(1 -1)
2(1 -1)
2(1 -1)
2(1 -1)
2(1 -1)
2(1 -1)
2(1 -1)
2(1 -1)
2(1 -1)
2(1 -1)
2(1 -1)
2(1 -1)
2(1 -1)
2(1 -1)
2(1 -1)
2(1 -1)
2(1 -1)
2(1 -1)
2(1 -1)
2(1 -1)
2(1 -1)
2(1 -1)
2(1 -1)
2(1 -1)
2(1 -1)
2(1 -1)
2(1 -1)
2(1 -1)
2(1 -1)
2(1 -1)
2(1 -1)
2(1 -1)
2(1 -1)
2(1 -1)
2(1 -1)
2(1 -1)
2(1 -1)
2(1 -1)
2(1 -1)
2(1 -1)
2(1 -1)
2(1 -1)
2(1 -1)
2(1 -1)
2(1 -1)
2(1 -1)
2(1 -1)
2(1 -1)
2(1 -1)
)

// edgeNormals

252
(
2(0 1)
2(2 3)
2(4 5)
2(6 7)
2(8 5)
2(9 7)
2(10 11)
2(12 13)
2(14 11)
2(15 13)
2(16 17)
2(18 19)
2(20 21)
2(22 23)
2(24 21)
2(25 23)
2(26 27)
2(28 29)
2(30 27)
2(31 32)
2(33 29)
2(34 35)
2(36 37)
2(38 39)
2(40 41)
2(42 43)
2(44 41)
2(45 43)
2(46 47)
2(48 49)
2(50 47)
2(51 49)
2(52 53)
2(54 53)
2(55 56)
2(57 56)
2(58 59)
2(60 61)
2(62 61)
2(63 64)
2(65 59)
2(66 67)
2(68 69)
2(70 71)
2(72 73)
2(74 75)
2(76 73)
2(77 75)
2(78 79)
2(80 81)
2(82 83)
2(84 85)
2(86 83)
2(87 85)
2(88 89)
2(90 91)
2(92 93)
2(94 95)
2(96 97)
2(98 99)
2(100 101)
2(102 103)
2(104 105)
2(106 107)
2(108 109)
2(110 111)
2(112 113)
2(114 115)
2(116 117)
2(118 119)
2(120 121)
2(122 123)
2(124 125)
2(126 127)
2(128 129)
2(130 131)
2(132 133)
2(134 135)
2(136 133)
2(137 135)
2(138 139)
2(140 141)
2(142 139)
2(143 141)
2(144 145)
2(146 147)
2(148 149)
2(150 151)
2(152 153)
2(154 155)
2(156 153)
2(157 155)
2(158 159)
2(160 161)
2(162 163)
2(164 165)
2(166 167)
2(168 169)
2(170 171)
2(172 173)
2(174 175)
2(176 177)
2(178 179)
2(180 181)
2(182 183)
2(184 185)
2(186 187)
2(188 189)
2(190 191)
2(192 193)
2(194 195)
2(196 197)
2(198 199)
2(200 201)
2(202 203)
2(204 205)
2(206 207)
2(208 209)
2(210 211)
2(212 213)
2(214 215)
2(216 217)
2(218 219)
2(220 221)
2(222 223)
2(224 225)
2(226 227)
2(228 229)
2(230 231)
2(232 233)
2(234 235)
2(236 237)
2(238 239)
2(240 241)
2(242 243)
2(244 245)
2(246 247)
2(248 249)
2(250 251)
2(252 253)
2(254 255)
2(256 257)
2(258 259)
2(260 261)
2(262 263)
2(264 265)
2(266 267)
2(268 269)
2(270 271)
2(272 273)
2(274 275)
2(276 277)
2(278 279)
2(280 281)
2(282 283)
2(284 285)
2(286 287)
2(288 289)
2(290 291)
2(292 293)
2(294 295)
2(296 297)
2(298 299)
2(300 301)
2(302 303)
2(304 305)
2(306 307)
2(308 309)
2(310 311)
2(312 313)
2(314 315)
2(316 317)
2(318 319)
2(320 321)
2(322 323)
2(324 325)
2(326 327)
2(328 329)
2(330 331)
2(332 333)
2(334 335)
2(336 337)
2(338 339)
2(340 341)
2(342 343)
2(344 345)
2(346 347)
2(348 349)
2(350 351)
2(352 353)
2(354 355)
2(356 357)
2(358 359)
2(360 361)
2(362 363)
2(364 365)
2(366 367)
2(368 369)
2(370 371)
2(372 373)
2(374 375)
2(376 377)
2(378 379)
2(380 381)
2(382 383)
2(384 385)
2(386 387)
2(388 389)
2(390 387)
2(391 389)
2(392 393)
2(394 395)
2(396 393)
2(397 395)
2(398 399)
2(400 401)
2(402 403)
2(404 405)
2(406 403)
2(407 405)
2(408 409)
2(410 411)
2(412 409)
2(413 411)
2(414 415)
2(416 417)
2(418 419)
2(420 421)
2(422 423)
2(424 425)
2(426 423)
2(427 425)
2(428 429)
2(430 431)
2(432 433)
2(434 435)
2(436 437)
2(438 439)
2(440 441)
2(442 443)
2(444 441)
2(445 443)
2(446 447)
2(448 449)
2(450 451)
2(452 453)
2(454 451)
2(455 453)
2(456 457)
2(458 459)
2(460 3)
2(461 1)
)

// featurePointNormals
0()
// featurePointEdges
0()
// regionEdges
0()


// ************************************************************************* //
